43
CSD_code = QEBVUR | q = 0 | S = 0 | Stoichiometry = C20H18Cl2FeN2 | MND = 4
C         9.72413819087780    5.05101690644962    5.41726739333194
H         8.72742622491439    5.35421419734906    5.72127516229489
C        10.81574451503578    5.32741742557526    6.22418509917274
H        10.68037546752874    5.86519197844234    7.15033272072591
C        12.08035569252244    4.90973278737287    5.84347834551819
H        12.93074211394866    5.11711082368180    6.47603768619649
C        12.26190959755129    4.24482428356516    4.64414483680838
H        13.25283202068617    3.95158369939729    4.32906165907476
C        11.17641030330159    3.98441034926739    3.81621566282770
C        11.34173549521620    3.36453962858277    2.49227972846917
C        12.11561098123044    2.22471188527642    2.31126612321312
H        12.61237379540075    1.78247238709089    3.16258047541341
C        12.23176785477061    1.64641600404709    1.05993710254161
H        12.83042291673456    0.75697197535222    0.93025768889378
C        11.57767910019601    2.20662339210030   -0.02387588410852
H        11.66455252797222    1.75634683473518   -1.00168857698221
C        10.81596957367137    3.35105320432753    0.14507071022826
H        10.32126421323826    3.79760687787510   -0.70683709378151
C        10.69061550125647    3.94168944166694    1.39291471858473
C         9.91581777439074    5.21936028735075    1.58406953917430
H         9.71254387805564    5.68844219441584    0.61962604262293
H        10.52662675198648    5.91462886192004    2.16879439611616
C         8.72328763359784    4.04594375484222    3.34090987155520
H         8.84266946955123    3.03992100054186    2.90465282720045
H         7.79619940264159    4.07075294484000    3.91894386725573
C         9.89411219053011    4.36440978175619    4.22486636815897
C         7.53692355035463    4.79248051064096    1.36980327522685
H         6.65576110240192    4.53239620302288    1.96579562578767
H         7.76169007884980    3.95172681468225    0.69483728826623
C         7.20193370533760    6.02907481052943    0.57831235424683
C         6.92174450359029    5.97020707149066   -0.78180111437538
H         6.95054466579119    5.02331330840825   -1.29957481488743
C         6.60593827036848    7.13766470520866   -1.45616563262492
H         6.38414691309873    7.11784112327287   -2.51302479325057
C         6.58622088863374    8.32883322220921   -0.74879232158687
H         6.34962986345897    9.26252067895991   -1.23328998588075
C         6.87974642838237    8.29345269897877    0.60484054892577
H         6.87912761653296    9.19603318585636    1.20057594988948
Cl        6.17562207890319    6.32867652525517    4.24777361953648
Cl        9.60058227576213    8.15937620087757    3.32395601939200
Fe        7.90654527583587    7.15128561420334    3.65438477235447
N         8.63021601699978    5.06744382962924    2.29389188796128
N         7.17704357889180    7.17728058895335    1.25441085051340
