55
CSD_code = JIZPIR | q = 0 | S = 0 | Stoichiometry = C23H26FeN2O3 | MND = 7
Fe        5.97180652469955    9.12628342255238    3.63628289088352
O         8.80818930895162    8.62164508130597    3.06532987283321
O         6.34929354215073   11.99702846342432    3.88696750883920
O         6.38333045420580    9.19239158573503    6.51005672125757
N         7.05922894221500    7.13744154830166    1.46937337869680
N         5.82770252197992    4.96459563597861    4.29983975629847
C         4.11640180610496    8.03061821630323    3.42843051919610
C         4.03231472193137    8.93233903415414    2.33974580447075
H         3.28383421239848    9.69844996841153    2.19698465408293
C         5.06077548922756    8.62592712603247    1.44432628167646
H         5.14678366370111    9.11005637887319    0.48238232269285
C         5.61586568727038    7.23209806293543    1.72569386688709
C         4.81605219648902    6.03873749201595    1.24711456013829
H         4.61054215752539    5.85053774515016    0.20552050735396
C         4.44021642267272    5.26195464446589    2.25653101406393
H         3.86236994780026    4.35896826476357    2.14717214937602
C         4.82641968144422    5.78304854691600    3.64044237971920
C         3.56380986148886    6.07772467247128    4.43813365169865
H         3.06840136315983    5.32099589226566    5.02189390483911
C         3.17909619220723    7.35101328468888    4.30477599664093
H         2.30192441159194    7.80674666733221    4.73180117150737
C         5.28615490055634    7.18058656654858    3.21766537593283
C         7.65986137401002    8.65373805690924    3.07303061873128
C         6.16337498894855   10.86940383844844    3.75993150266462
C         6.18046619216262    9.13192009214749    5.37999349637787
C         7.59721566331794    5.82348317011562    1.81009746377937
H         7.19232139338182    5.05883588760766    1.12600134680844
H         7.27335289187888    5.57547360138678    2.82256093933196
C         9.11907927355416    5.79467710181238    1.72098970964758
H         9.46442879882198    4.79057733631736    1.97417397144539
H         9.54481796698448    6.49128093747659    2.44158899423856
C         9.56703993911272    6.17754923143468    0.31627050497739
H         9.20942693976535    5.43323214710430   -0.40067987373808
H        10.65598702781599    6.20933221192815    0.25549389213551
C         8.97792985283028    7.54047535279700   -0.02180379930872
H         9.23102973681450    7.82815788475997   -1.04426373115048
H         9.38942054568646    8.29024540592442    0.65404370170786
C         7.45779257299059    7.51749427693800    0.12096826622699
H         7.07481279030951    8.51595213923128   -0.09381321969145
H         7.03710425820504    6.81594798484643   -0.61948964610374
C         5.50317525499481    3.56046629278832    4.46431326584965
H         5.12815709226999    3.16924905127625    3.51754235332049
H         4.72982025186798    3.40368683676014    5.23738839933383
C         6.76669011246373    2.79738213414979    4.85797195624612
H         7.50356406332786    2.90858836823969    4.06057404809400
H         6.53176371945068    1.73688205946583    4.96636277953239
C         7.33786726791220    3.35648293600156    6.15616908664617
H         8.27037898962842    2.84919523210830    6.40965396302838
H         6.62899898867736    3.18591188119502    6.97035951981912
C         7.57306183395558    4.85404126863319    5.99128527822222
H         8.33494845532012    5.02291708966916    5.22850354872040
H         7.91868951560119    5.29580034102518    6.92682915553290
C         6.28091473882321    5.53702467838798    5.55626565362136
H         5.52138558623492    5.42684814840046    6.34970301427026
H         6.45750791310680    6.60405872408572    5.39821955059779
