42
CSD_code = BEHLOP | q = 0 | S = 0 | Stoichiometry = C13H22BFeNO3Si | MND = 7
Fe        9.94707473515662    9.57709518630387    1.12683406767252
C        11.52743965603403    9.12295838976760    0.55905041516619
O        12.58632613374431    8.83276602377758    0.21479916161795
C        10.70819337799344   11.00143955500934    1.85444859543065
O        11.28311318821415   11.84970581135736    2.37890344244664
C         9.95792151371017    8.18690081482123    2.27324893459738
O        10.23183816965253    7.39104498625431    3.05996284896788
Si        7.10656688604458    8.91964963201161    0.46007206984381
N         7.81195976142049   10.34887455897369    1.27603713813165
B         8.49446044470946   11.17143055422029    0.27208531766356
C         9.04260547328265   10.23413018621274   -0.83408720321590
C         8.61497380109631    8.90173506564138   -0.67300635461206
C         5.48283766097893    9.43904521522902   -0.41243325155576
H         5.10416494272923    8.63716797024588   -1.03853981835122
H         5.63618246420583   10.30961246200442   -1.04403421123333
H         4.70459431048862    9.68152927440193    0.30645856367948
C         6.74583059563500    7.49712441324960    1.66491361721451
H         7.59945846055699    7.24424013590021    2.28250584802202
H         6.46462596799470    6.61078218562735    1.10839385463814
H         5.91671086847089    7.74491866002236    2.31928382678402
C         7.17984454698422   10.89879339451682    2.45703349879625
H         7.03590147593031   10.11822644015106    3.20471718038693
H         6.20018360112867   11.32009161738241    2.21065847489959
H         7.79159853155322   11.68649500641997    2.89591771516676
C         8.48034022436663   12.76607058356679    0.28455508648030
H         9.27777239094394   13.16747025812870   -0.34376642275371
H         8.64853559964727   13.16862086859193    1.28621118507744
C         7.14401636616305   13.32179171589740   -0.22806279640950
H         7.15217539706606   14.41034335608789   -0.22837054282000
H         6.32021611674137   12.98865284898798    0.39949215936133
H         6.95249399774032   12.98283288631970   -1.24408476140309
C         9.85334462289069   10.68090941038681   -2.02527585883691
H        10.54373258964622    9.90172727569884   -2.35239092215694
H        10.44473164628140   11.55854730987592   -1.75929826280534
C         8.91850979831212   11.04037257851254   -3.18222430096654
H         9.49135112902227   11.36093247009730   -4.04955453835592
H         8.25307583165583   11.84883408857001   -2.88999287135652
H         8.31331855360248   10.18245857261894   -3.46512188240205
C         8.94464735028870    7.78198643304311   -1.61752901334828
H         8.80144949733439    6.82081292321462   -1.13015380545465
H         9.97104869815988    7.83606568918349   -1.97262746506902
H         8.28203362242191    7.81731319171556   -2.48422871893869
