84
CSD_code = NEDZOM | q = -1 | S = 0 | Stoichiometry = C34H46FeN3(1-) | MND = 4
Fe        8.78344843345101   15.68924310937398    4.15480404743852
N        10.08077681127856   15.94429726594947    5.68698199701271
N         8.12952588524517   17.23609986289277    4.92354030640957
N         7.38597440080694   16.20673503876581    2.82102360713372
C        10.45941460368783   17.18085401783873    7.83051734189381
H         9.72353076837485   17.14428509650130    8.63706802300094
H        10.94843868690189   18.15617489510903    7.87724752695215
H        11.20859123240046   16.40968131616694    8.00314317934377
C         9.78969423063786   16.96647257898524    6.49632000299049
C         8.70865463004897   17.75872990495998    6.05556716523303
C         8.23453387475774   18.94299116907503    6.63526651882978
H         8.69648480809410   19.32531833685094    7.53446868907941
C         7.19380133922826   19.62852540738118    6.02766007669050
H         6.82511253391184   20.55111454609935    6.46064627851340
C         6.64247133808896   19.14418709238423    4.85127046718255
H         5.85579759052404   19.68672024153379    4.34629034583384
C         7.12694090105342   17.94781597646440    4.30595393341601
C         6.68110420918263   17.29984366936084    3.13550100253972
C         5.43369247666239   17.72197218972527    2.40419469074153
H         5.13902327007716   16.95621965048715    1.68811775593828
H         5.59617555180135   18.65762647325063    1.86444655586856
H         4.61374660807778   17.88388093120560    3.10620537756803
C        12.48538689235675   15.65234907571313    5.64225122155209
C        13.56878130822689   14.80865412075062    5.79454339709210
H        14.57088727039816   15.17436762249365    5.62297349613880
C        13.40222333349862   13.48315458372697    6.16539597349926
H        14.26595035154117   12.84480886944470    6.29836121263974
C        12.12619689264326   12.97284522631646    6.33637771382566
H        12.01301000990705   11.93020883781871    6.59689078510320
C        11.01315435202948   13.77638330482114    6.17959877292150
C        11.18421281858223   15.14381169381591    5.87021440078045
C        12.63083374929978   17.07723609813597    5.15167332733311
H        11.95192012126360   17.71022763853414    5.72980001843378
C        14.03965690271566   17.64923195817744    5.30824256602459
H        14.39619013589320   17.53192841353345    6.33045280045337
H        14.03185311767179   18.71180520329872    5.06777497499771
H        14.73927620547734   17.15958306711619    4.63349799949182
C        12.18374091403631   17.15302415016425    3.68783795601599
H        12.26981344740326   18.17295649873987    3.31564896785877
H        11.14071440355107   16.83230166463350    3.60225312029157
H        12.79601329720311   16.49875944479621    3.07045434672322
C         9.60214034177423   13.25401209132646    6.32227231269830
H         8.99005448070649   13.80454379842355    5.57814256507500
C         9.05301095235556   13.57263250303579    7.71567113463941
H         9.04603132337016   14.64632202755645    7.87737539782196
H         9.67249046272710   13.10738108633894    8.48260817686547
H         8.03414273539591   13.20169920575277    7.81986504435331
C         9.47493098958756   11.76172744235764    6.02874220775927
H         9.92345716431523   11.53009479609483    5.06617576708448
H         8.42495122317731   11.47710070204756    5.99739445933657
H         9.96002301595247   11.16352340342579    6.79905809217528
C         7.29604946292636   15.77154328969385    0.42385828780691
C         6.99466683272804   14.88835300001963   -0.59744330293854
H         7.18356454217392   15.17268210589360   -1.62431173003718
C         6.45104347012981   13.64331600614470   -0.33425010056937
H         6.20688463505607   12.97122796355937   -1.14637700315737
C         6.23365165553525   13.25745295621294    0.97937458212559
H         5.81706667752513   12.27874278413709    1.17086996358026
C         6.53474077348316   14.10143125627733    2.02980063323669
C         7.05615109721902   15.39001917549434    1.76035356196823
C         7.93324043343180   17.10737162937496    0.11262455057699
H         8.00870062695527   17.67374449160187    1.04474207657927
C         9.35366443696127   16.90060545645530   -0.41812666406684
H         9.94261074425465   16.36038154317267    0.31840337376083
H         9.83271287446168   17.85996186488824   -0.61023950628600
H         9.34288320734964   16.32575245965204   -1.34271502722160
C         7.10505837338980   17.92098864030070   -0.88508255850000
H         6.07893544139854   18.02348449232839   -0.53931617732842
H         7.08862416171454   17.44094624188213   -1.86179649290580
H         7.53104848277863   18.91660007658109   -1.00390848031591
C         6.30179137887713   13.70994985135706    3.47266325563435
H         7.09441891056381   14.20395770549128    4.07572654942931
C         6.39090474991384   12.20669263752649    3.72192460964774
H         7.32316606029053   11.81266810470690    3.32531091468935
H         5.55819109565464   11.67743088687330    3.26073399469438
H         6.35879383840631   12.00908790068161    4.79218044103179
C         4.95012075760154   14.24780091469151    3.95155966012059
H         4.77286118250804   13.96685598701831    4.98878242089233
H         4.14369265301267   13.84527558431049    3.33839576175452
H         4.93336400209921   15.33125094062076    3.88228356887513
C         9.90003211573903   14.48508765358823    2.93958017388083
H        10.12821877364972   14.97734730015119    1.98782186806392
H         9.34022860696460   13.57799877242175    2.67295272596580
H        10.85763554790358   14.14602702812209    3.34654097043473
