49
CSD_code = VIRWEZ | q = 0 | S = 0 | Stoichiometry = C20H24Cl2FeN2 | MND = 4
Fe        5.84122314163883    1.98874635183675    0.29357810258590
Cl        3.83329114226910    2.23826243505301    0.52152717104644
C         6.77292496630206   -0.54124926280400    0.27064215985193
H         7.11791094571079   -1.49467062628648    0.64446272656646
N         6.40013084470136    0.43880401777344    1.09243857815090
C         6.66472582782425   -0.19167848907972   -1.06211818712962
H         6.91102710556359   -0.82698614579362   -1.90099511898397
N         6.21097775400866    1.04900420966765   -1.23361122824863
Cl        7.20485590227153    3.47671702024518    0.56941325402924
C         6.44537957085867    0.26509500949691    2.48295246514418
C         5.32540257376461   -0.24175949746322    3.15961449358247
C         5.37920336443394   -0.36566920723540    4.53873145312152
H         4.51571612885339   -0.75033100085027    5.06256882582979
C         6.51161658767914   -0.01388378424722    5.25888656862987
C         7.62161461275271    0.45202256779702    4.56639309907422
H         8.51693506978204    0.70893250177356    5.11454048875821
C         7.61401420707250    0.59298595658391    3.18904473932356
C         4.10394599395303   -0.65039662345463    2.39996092659235
H         3.60191752977838    0.22681539827613    1.99253552005945
H         3.41075252290275   -1.18206085954575    3.04611330272629
H         4.36862408579810   -1.28937230028587    1.55868123422337
C         6.55747048378496   -0.17074434653135    6.74791005793914
H         5.55501004830472   -0.21983417987352    7.16528464134691
H         7.09190023147222    0.65828821153858    7.20662059804998
H         7.08073192517018   -1.09111539473256    7.00927063313430
C         8.82762762930618    1.07284568911828    2.45893489324901
H         9.68385562676664    1.11766777623552    3.12625616391774
H         8.65167547306708    2.06567901545496    2.04613814078505
H         9.06097290773751    0.41396246147456    1.62393238150621
C         6.03735794551724    1.58193910018023   -2.51836364218141
C         7.09845406925491    2.25851478652004   -3.14201753135901
C         6.88993681448842    2.81511276938155   -4.39218624590594
H         7.70170219956307    3.34155980532471   -4.87378720570833
C         5.66794493243937    2.70938385809605   -5.04439236395488
C         4.64474919033991    2.00535286546684   -4.42705587603035
H         3.69588696169659    1.89487584212114   -4.93243492720904
C         4.80714092851722    1.43127310860879   -3.17600172517558
C         8.42923749237305    2.36030323353852   -2.46758686725198
H         8.75003293877814    1.38758438600545   -2.09771547915739
H         8.36598665216512    3.02689647801030   -1.60797592224699
H         9.17855423469214    2.74463333339568   -3.15418933783540
C         5.47123464657171    3.34327361178057   -6.38717185428716
H         5.39059939336767    4.42504546156781   -6.28000740729430
H         4.56423637159261    2.97827315841403   -6.86203477592622
H         6.31865887951872    3.13636178437777   -7.03798249153295
C         3.69880988233760    0.65477632381992   -2.53988538719198
H         2.91114965139221    0.45086937891433   -3.26006204733172
H         3.27536001645875    1.21625175993317   -1.70743998800795
H         4.06783259541966   -0.28735794959679   -2.13751700927243
